<?xml version="1.0" encoding="UTF-8"?>

<!-- generated on 2025-08-14 12:16:54.064771 by generateTAZBuildingsFromOSM.py UNKNOWN
  options: <doubleminus>osm H2ST6.osm <doubleminus>net H2ST6.net.xml <doubleminus>taz-output H2ST6.taz.xml <doubleminus>weight-output H2ST6_taz_weights.csv <doubleminus>poly-output H2ST6_buildings <doubleminus>admin-level 10 <doubleminus>max-entrance-dist 800 <doubleminus>taz-plot H2ST6_taz.html
-->

<tazs xmlns:xsi="http://www.w3.org/2001/XMLSchema-instance" xsi:noNamespaceSchemaLocation="http://sumo.dlr.de/xsd/taz_file.xsd">
    <!-- id="-390" name="Hay salam" -->
    <taz id="-390" edges="-23047 --21232#2 --21406 -21987#0 -23764#5 --23013 -23116#1 --20436 --21627#2 -24337#3 --20560#1 -22779#1 -21514#1 --23642#0 --20735#0 -20518#6 -21097#0 -20518#7 -21770#1 --23808#3 --21212#1 -20750 -20545#2 -20836 -20987#3 --22722 -21969 -22101#1 --20550#2 -21217#0 --24337#0 --21712#1 --23600#1 -22290#3 --20925#1 -21141#0 --21949 --23597#2 -20755#2 -22847#1 --22036 -20993 --24084#2 -20968#0 -22863#2 -21627#2 --21434 --23155#0 -20658 -24192 -24338#0 --21998#0 -24423#1 --20593#1 --22304#0 --20349#0 --21934#2 --21543#4 -22645#1 -23977#1 -22867 --23364#0 --22264#4 --22005 --23766 -22304#0 --20240#1 -23112#4 -21627#0 --23408#0 -20591#5 --22926#1 -22357#1 -20449#6 -24364#3 -24132#0 -24073#1 --23209 -21770#0 --24080 -22147#1 -20731#2 -23973#7 --24066#1 -20710#4 -22847#4 -23046 -20545#1 --22304#3 --22264#0 -24601#2 --24288 -20673#3 --21361#2 --24018#1 -24300#4 -21097#1 --23184#1 -21453#2 -21502#2 -22896#1 -24240#3 --21640 -22038#0 -22645#5 -24385#4 --23101#2 -21053 --23764#1 -21814#0 -24231#1 -24332 -21453#0 --22341 --21313#2 -21543#4 -21313#2 --22219#0 --22715#0 -21434 --21370#3 --22287#0 -21245#5 --22131#4 -21754#1 -20449#2 -22307 -20527#1 -24033#0 -24170#1 -22287#1 --22703#1 --23439 -22974#0 --20824 -22654 -22828#2 --21453#7 -20546#3 -22304#2 -20342#7 -24501#0 --23764#2 -20528#0 --23607#1 --20993 -23324#1 -22887#24 --22304#5 -23582 --21462#1 -20342#5 -20591#6 --21754#0 --21162#2 -20987#4 -23548#3 --23659#1 --21370#1 -23426#2 -21627#3 -22326#0 --20523 --23764#3 --20342#5 --21014#0 --22134#2 -23155#5 --21757#0 -22926#2 -20822 -20617#1 -22326#2 --22507#3 --23597#0 -21627#1 -23004#8 --23388#0 --21623#1 -20593#2 -24086#0 -21462#2 -23881 -21120#0 -20518#5 -24445#0 -21360#3 --21543#2 -22304#8 --23038#0 -23877#0 --23095#2 -20479#2 --20342#8 --24084#1 -23837#4 -23133 --23301#2 --24039 --22645#3 -21516 --24066#0 --21485#1 --22226#2 -20349#0 -21524#1 -23184#1 --22200#1 --22361#0 -20479#1 --23301#1 --21502#1 --24207#0 -23330#0 --22071 -21327#0 --24386#1 -22226#1 --23301#0 -23640 -21474 -22863#0 -23443#1 --21123#0 -23973#3 -22131#4 -20773 -22727 --22926#2 -23068#1 -23630#3 --24018#0 -22131#3 --20750 -22361#1 -22761#1 -22304#11 -21245#2 -21831#2 -24093#1 --21979 --21929 -20684 -20437#0 -23887 -22304#3 --23260#1 -24139#3 --23089#1 --20337#2 --22346 -24108 -23204#0 --21360#1 -20496#0 --20342#9 -21954#2 --23567#1 -22038#1 -22304#10 --24337#3 -21182 --20898#0 --21721#2 -21044#1 -24601#9 -23764#1 --23204#0 --23046 -24601#6 --20496#1 --23494 --21304#1 -21546#8 -20710#8 -21360#4 -20449#7 -23364#1 --24132#1 -24073#4 -20824 --21543#1 -23593#2 -24293#1 -22410#1 -24039 --24085#0 --21485#0 -21146 -22304#6 --22609#0 --23942 -23698 -22932#1 -22609#2 --22659#0 -22715#0 --20847#0 -23004#6 --20652#0 --22549#1 --23607#0 -22282 -21502#0 --23291 -22981 -23089#2 -24175#0 -22795 -21245#0 -22715#2 --22226#0 -21546#4 -22511#4 -23307 --21836#2 -20673#2 --22318#0 -23808#1 -21623#0 -23278#0 -23548#7 --22200#2 -22616#1 --21681 -22134#2 --23101#1 -20240#2 -22428#0 -21358#4 -20710#5 -24084#1 -20591#3 -21238 -21879#0 -22906#1 -24128#4 -24438 -20641#1 --21932 -21888#1 -20576 -22889 --23764#7 --24307 -20593#0 --22131#3 -23112#3 --20577 --24059#0 -24337#2 -22872 -23527#2 -21313#1 -21515#0 -22304#9 -24073#2 -23038#2 -21313#0 -21879#2 -22326#4 -24073#6 --24534#0 --21721#1 -20710#3 --23426#0 --21543#5 -21868 --23364#1 -23639#0 --20399#0 --23222#0 -22186 -24364#0 --24386#0 -22549#0 --21225#2 --23324#0 -21802 -22584#1 --21502#0 -24366#1 -20418#1 --20527#2 --20546#3 -23675 -23548#13 --20630#1 --21007#0 -23004#5 --23659#2 -21888#3 -20437#2 --20342#3 -24606#0 -23267#8 -22906#0 --24146#2 --21462#2 -22529#2 -22584#4 -22168 -24300#8 -21473#0 --21766#1 -23819#0 --21162#0 -22850#5 -24085#0 -20880 -22932#0 -23808#0 -23038#0 -23477#1 --21814#1 --23330#0 -24059#1 -21038#1 --20437#2 -20240#3 --22400 -22850#2 -24385#3 -23205#0 --20920 --21536 -20437#5 -23184#2 --23436 -23004#7 -20890 -23101#0 -24183 --22290#3 -24301 --22608 --20925#0 --23819#0 -21747 -21038#2 -22609#3 -24018#1 -22342#1 --22264#5 -21627#6 -24238 --23808#1 -22200#1 -23642#2 --21360#2 --23764#0 -20449#4 --21225#0 -21831#4 --20550#1 -24240#4 --23161#0 --20755#1 --20385#1 -22292 -24601#5 -21650 -23425 --21152#4 -22497#1 --20837#1 --21627#0 -21377#1 -23155#1 -22018 --20342#7 -24073#0 -21300 -21627#5 -23488#1 --24344 -22847#2 --21304#0 -21076#1 -23038#3 --22669#0 -24402#4 --21543#0 -21077#1 -21304#2 --23155#5 -20560#0 -22608 -22598#0 -21453#3 -23530#1 -23089#1 --20890 --20240#0 -22616#3 -21517#1 -20437#4 --23698 --21934#0 --22645#2 -23593#1 -23926#0 -22529#1 -23630#5 -20523 -22290#0 --22019 --21775 --22895#1 -20989#2 --21920 -21462#3 -24584 -21888#2 --21212#0 -21162#0 --23764#4 -20399#2 --20438#1 --23977#2 -23607#3 --20783 -22036 -24240#5 --20608 --23222#1 -21712#1 --21110#0 -21327#2 --24471 --20630#0 --21317#2 --21514#1 --22290#5 --23642#2 -23155#4 --22264#1 -20349#1 -24599#0 --20593#2 --22679 -20649 --21516 -22047#0 --22131#1 -22850#0 -24525#0 -20652#0 -22002#1 -21110#1 -23837#3 -21998#0 --20684 -20528#3 -20546#4 -23155#2 -22609#4 -23593#1-AddedOnRampEdge -21014#4 -21327#4 -22598#1 -24509 -24059#3 -22507#4 -23222#0 -20657 --22290#4 -21297#0 -20931#4 -20931#2 -21543#0 --24059#3 --24419#0 -21370#1 -21500#0 --23262#0 --20479#0 -23147 --21360#3 -21949 -22131#1 -24385#0 -24337#0 -20550#1 --23116#1 -22131#0 --22645#1 --21987#1 --21453#5 --23597#1 -20608 --20758 -21141#2 -21627#4 -20627 -21515#2 --21514#2 -20735#1 -24364#5 --22307 -22989#0 -22584#6 -23038#4 -21370#3 -22848 -24385#1 -22226#2 --22777#0 -24288 -21311 --24069#0 -21543#2 --22751 -21152#4 -22659#0 -23301#1 -23607#2 --22715#2 -24151 -22410#2 -22022#1 -23567#3 -20960 -22476#1 -23109#2 -21670 -21462#1 -23301#0 -23973#6 -21453#5 -23382 -21389#1 -22918#0 -23004#10 --21811#1 --20407#1 -24085#1 --23837#0 -21517#2 --20550#0 -22801 -22461#4 --22326#4 --21185 -21836#0 -20591#1 --24066#2 -22887#22 --23764#10 -20342#1 -21546#2 --22219#1 -24293#0 -24419#2 -20849#2 --22369#0 -23488#0 -20247 -21568#1 -24020 --23764#8 -23530#0 -22331#2 --21370#2 --22872 -23630#4 --23446#0 -21225#1 -21406 -23367 -23567#0 -24300#2 --24337#1 --22361#1 --22811#1 -23778 -21141#1 --22614#0 --24400 --21627#4 -23222#2 -20528#5 -23519#1 -24385#2 -23764#2 -21317#1 -20518#1 -23607#6 --21709#2 -20518#4 --23802 -21430 -22572 --21317#1 --21127#1 -23260#1 --21152#3 -21162#2 -21918 --24266 -21709#2 -21893 -21524#0 -20989#0 -21701 --22304#9 --22801 --22811#0 -21014#2 -23117 -23607#1 -24402#3 -23647 -20528#4 --22304#7 -21979 -24386#0 --21203 --21097#0 -21588 --21770#0 --21543#3 -21514#2 --22274 -21742#0 -22779#0 -22511#0 -21253 --21076#0 --21998#2 -21120#5 -23184#3 -21338 -21500#1 -22926#0 -20755#0 --21225#1 -21327#3 --21879#2 -22369#0 -23597#1 --21076#1 -24364#1 --23443#0 -23600#0 -24599#1 -23101#2 -21681 -24400 -24443#1 -21502#1 -24207#0 -20931#6 -21481 -20527#2 --22609#5 -22669#1 -23954#1 --22291#1 --22298 --22932#1 --23324#3 --24606#1 -23607#4 -21912#0 --22342#1 -21638#1 -21358#10 -23038#1 -24518#0 --23971#1 -23317#1 -22850#1 --23926#1 -22507#3 --20593#3 --21488 --23977#3 -22318#1 -21814#1 -23837#5 -20546#5 -20593#3 -21792#2 -24060#1 -24112#0 --22609#1 -24128#0 --22727 -22461#2 -20906#1 -24501#1 -20407#1 -22828#1 -23510 --23607#4 -22967 -21120#4 -22703#1 --24084#3 -20317#1 --23307 --22645#4 -21721#2 -24307 --20593#0 -22461#5 -20438#0 --21650 -20449#5 -22369#1 -24093#0 -21462#0 -23755 --21747 -24139#5 -20438#1 --22779#1 -20837#0 -23766 --24423#0 --24314#0 -24555#1 --23426#1 --23089#0 --23161#1 --21428#0 --23607#5 -21485#2 -22048 --23764#9 --22047#1 -22584#0 -20407#0 --24314#1 -21836#1 --23204#1 --23632 --22385 --21918 --21998#1 -21721#1 -22584#2 -21792#1 -22731 -22658#1 --22609#6 -24231#2 -20583 -21212#0 --20385#2 -21361#2 -21546#1 -23659#1 -20783 --21311 --22507#2 -23642#0 -24402#2 -22895#1 -22298 -21910#1 -22136#1 -20925#1 -22304#1 -21503#0 -23460#1 -21987#1 -24060#0 --21014#1 --22779#0 --21245#0 -23973#2 -21304#1 -24069#0 -22779#2 --23356#0 -21123#1 -21189#1 -23205#1 -23567#1 -23188 --23095#3 -22812#1 --21398 --23325 -24300#3 -22715#3 -22461#1 -23419 -21642#0 -22887#23 -21245#4 -21432 -23868 -20478 -24386#1 -21370#0 -23808#2 -21850#1 -20849#0 -24282 --24132#0 -24547 -22850#4 -20673#1 --23012 --23324#2 --23038#3 -21838#4 -20731#0 -22645#2 --21099 -23013 -21120#2 --21987#2 --22302 -20342#3 -23014 -24084#0 --23819#1 -21203 -23877#1 -22847#0 --21152#1 -23431#1 -22304#7 -23764#10 -22614#1 --20906#1 -22142 --21811#0 --24519 --24033#1 -22034 --23600#2 -21757#1 --22282 --21213#0 -21193 -23630#2 --20342#6 --21152#2 --22290#2 --21954#0 --20837#2 --24419#3 -22410#0 --21123#1 -21987#2 -24175#3 -24155 -24409#1 -23081#1 --20546#4 --24146#0 -22341 -20710#2 -21389#3 -20925#2 -22101#0 -21242 --24293#0 -21485#0 --22131#2 --21869 -21546#0 -22200#0 --22079 -21515#1 --22326#0 --21627#6 --22290#1 -23068#0 -22887#20 -21934#3 -22346 --22896#1 -21351#2 --21453#3 -21934#1 -23507 -21766#2 --20479#1 -24454#1 -23435#0 -22405#3 -23396 -23593#3 -22812#0 -24300#5 -20437#3 -24287#0 -24139#4 -24175#5 -20577 -23971#1 -22751 -23494 --21627#3 --21610 --22812#1 -23446#0 --20731#1 --23519#0 -23548#2 -22511#3 --20976 --20906#0 -22974#3 --22906#0 --22134#1 -23548#10 -20735#0 --22877#0 -21360#1 -20426 -23548#12 -21174 --20527#1 -24175#1 --22304#2 --21110#2 -21515#4 --22812#0 -20847#1 --23837#4 --20426 -22219#1 --22290#0 --21644 -22019 -20436 -23971#0 -20342#2 --23964 --21774 --21597#0 -21453#4 -23095#2 -23089#0 --21245#2 -24601#4 -24344 -23025 --23567#0 --23460#0 --24084#0 -20713 -21910#2 -23443#0 --23382 -22357#0 -21850#0 --21712#0 -21212#1 -24314#1 --24151 -22134#1 -21152#3 -21965#2 --23567#3 --22609#4 --22645#5 -21172 --21912#0 -23649 -21811#1 -20447 --23095#4 -21437#1 -21942 -21110#2 -23409 -23477#0 -23632 -20518#8 -22715#1 -24314#0 -20321#0 --23446#1 -20830 -21358#8 -21225#2 --21814#0 --23954#0 --23789 -22616#0 -22747 -23095#1 -23260#0 -23764#4 --23184#0 --22405#3 --20337#0 -21453#7 -22467 -23155#3 -21838#2 --22047#0 --21453#2 --21952 -21881#1 -21628 -20437#1 -22887#25 -24266 --24170#0 -22340 -22385 -22534#0 -21517#0 --21766#0 --22507#4 -21327#1 -20518#3 --23607#2 -24033#2 -21709#1 --20755#2 --22304#10 -21485#1 --23567#2 -23548#1 -20418#2 --23623 --21304#2 -23205#3 --21014#2 -20321#3 -24249 --22896#0 -22400 -22669#0 -24146#2 -21515#6 --23510 -23109#1 -21389#2 -21910#0 -21014#3 --22609#2 -22528 --22599 -21838#5 -23837#1 -22264#0 -22388 -20527#0 -21217#1 --21453#4 -22584#3 -24128#3 -22511#1 --21076#2 -22616#2 -20437#6 --21360#0 -22461#3 -23155#0 -22147#0 -20528#1 -24601#0 -24066#2 -20518#9 -23548#8 -22264#5 -21912#1 -24601#10 -20630#0 --22658#0 --23051 -20617#0 --21879#1 --21162#1 -22291#0 -21014#1 -23802 -22476#0 -23420 -23209 -22645#0 -21357 -24470#1 --23101#0 -21503#2 -21487#4 -21831#3 --23038#5 -24300#0 -22103#2-AddedOnRampEdge -21750 --23089#3 -23330#1 --22528 -20837#2 -21934#2 -21742#1 -20518#11 -22828#0 -22264#1 -24128#1 -20449#3 -23973#1 --20898#1 -21954#0 -23184#4 --23222#2 -23324#0 -23548#6 -21152#1 --20525 -24086#1 --24534#1 -24364#2 -21057 -23004#9 -20259 -20987#1 -23431#0 -21453#6 -22722 --21245#4 -23954#0 -20324 --21766#2 --21757#1 -22047#1 --21485#2 -22777#1 -23439 --20731#2 --23184#4 --21754#1 -23301#2 --22926#0 -21998#1 -22291#1 --24555#1 -23600#2 -22609#6 -21774 -21952 -21007#0 -21515#5 --21462#3 --21934#3 -20385#1 -20545#3 -21183 --20337#1 --23675 -21543#1 -21879#1 --23409 -22896#0 --20342#1 --23971#0 -24470#0 -22131#2 --24501#1 -21384#2 -22718#0 --21097#2 -24300#6 --24084#4 -21965#1 -21098 -22326#3 --23089#2 -21361#1 --20731#0 -23267#0 --21317#0 -23388#0 -20342#8 -21094#0 -23973#5 -20385#2 -23477#2 -20240#1 -23095#4 -22588 -20710#0 -22710#2 -22304#4 -23161#1 -21854 -22710#1 -21038#3 -21359 -24323 -23600#1 -24170#0 -23526 -22264#2 -23222#1 -23977#0 -24231#0 -22511#2 --22989#0 -23938 --23837#1 -23426#1 -21361#0 --22645#0 -21838#0 -23262#1 --23639#0 -20449#1 --20407#0 -24402#1 -23642#1 -22302 -23264 --23659#0 --21007#1 -22777#2 -21232#3 -24527 -21360#2 -20872 --22958#0 -21076#3 -21428#1 -24519 --24402#4 --22779#2 -22103#0 -22219#0 -22877#2 -22557#2 --21627#5 --20342#4 -21245#3 -23623 --21881#0 -22811#1 --22786 -22361#0 -22645#3 -24059#0 -23587 -24128#2 -24175#2 -24080 --20399#2 --22292 --24402#1 -24084#2 --21969 -24606#1 -22850#3 -21317#2 --23607#6 -20710#7 -21503#1 --24337#2 --20317#0 -23435#1 --22047#2 --22038#1 --23068#0 -21120#3 --22549#0 -22331#3 -23254 --22304#4 --23356#1 -22200#2 -22926#1 -23109#0 --21245#5 --23642#1 -22187 --23426#2 --22932#0 -22290#2 -24093#2 -23161#0 -24132#1 -21377#0 -22958#1 -23764#6 --20438#0 -22304#5 --22989#2 --24170#1 --21232#1 -20518#11-AddedOffRampEdge -20518#14 -22609#0 --22299 --20617#1 -20731#1 -24366#2 --23155#2 -23764#7 -22299 --22244#1 -20837#1 -22244#2 -21232#2 -23502 --21077#0 --21792#1 -23764#0 -20630#1 --23764#6 -22710#0 -20321#2 -20898#0 -22609#5 --24527 --21182 -20593#1 -21038#0 -22549#1 --21836#0 -21703 -20518#10 -20591#4 -23446#1 --22038#0 -21642#1 -24300#7 -23223 --21340 --23420 -22022#0 -22974#2 -22290#5 -20337#2 --21836#1 --22867 --21500#1 -21811#0 -23597#0 -23205#2 -24073#7 --23095#0 --21453#6 --24059#2 -21932 --20617#0 --21987#0 -23764#8 -23973#0 -22103#1 --24146#3 -24139#1 --22877#1 -23356#1 -20758 -21076#2 -22071 --20437#7 -24419#1 --21266 --20437#5 --22761#0 -22264#4 --21313#1 -21360#0 --21245#3 -23764#3 -22136#0 -21097#2 -22357#2 -23659#2 -20496#1 --23764#11 -24366#3 --24146#1 -23548#11 -22290#1 -22609#1 -22599 --22226#1 -20925#0 -21358#5 -21910#3 -22887#21 --23881 -22318#0 -21623#1 -20778 -24060#2 -21610 --23155#1 --21888#1 -21340 --21888#0 -24419#0 -23977#3 --22291#0 -23964 --21888#3 --23507 -23301#3 -23837#2 -24471 -21568#0 --22777#1 -21266 -21721#0 --20546#5 -22319 -21869 -24207#1 -22811#0 --20342#2 --23443#1 -23630#0 -24601#7 -22274 -23204#1 --22304#11 -22103#4 --22304#1 -22989#1 -24240#0 -23317#0 -21389#0 -23607#5 -21929 --20437#3 --23639#1 -24395#0 --21514#0 --24547 -23364#0 -20342#4 -21355 -23460#0 --20527#0 -23038#5 -21742#2 --20349#1 -21127#0 -24073#3 -22703#0 -20591#7 -21689 --22967 -24139#0 -24084#4 --24155 -22918#1 --22244#2 -24146#1 --23837#3 -22529#3 -23426#0 --22669#1 -24454#0 -22557#1 -21384#1 -22651 --21370#0 -23200 --22877#2 -21831#0 --23188 -21543#5 -24534#0 -21007#1 --22326#1 -23285#1 --24525#0 -21597#0 -23764#9 -24309 -24443#0 --22497#0 -23758 --22945 --22703#0 --21361#1 --22200#0 --21253 -24059#2 --24606#0 -21838#3 -23639#1 -21888#0 --21110#1 -24060#3 -24073#5 --23607#3 -24084#3 -24240#1 -21766#0 -22326#1 --22244#0 -21546#5 -22190 --23837#5 --22304#8 -21836#2 -22244#1 --21014#3 --21453#1 -21546#7 -21232#1 -23548#5 -23408#0 -24601#8 -23600#3 -20437#7 --24402#2 -22847#3 -23324#3 --22319 -24059#4 -20399#0 --22989#1 -21358#7 -21754#0 --23038#4 --23330#1 -20337#1 --21879#0 -23051 --23977#0 --20259 -23540 --23954#1 -23476 -22287#0 --22264#2 --24069#1 -20908 --21517#1 -23977#2 -24525#1 --23155#3 -22507#2 -23808#3 -23942 --22895#0 -22304#12 -23111#1 -22800 -23081#0 -21099 -20591#2 -24146#3 --21627#1 -20968#1 -23291 --20488 -20560#1 -20710#6 -23926#2 -22331#1 --21934#1 -21162#1 -22615 --20778 -21358#9 -21934#0 -21973 -23527#1 -21838#6 -21370#2 -22863#1 -23089#3 --22131#0 -23597#2 --24089#0 -21568#2 -22161#0 --21638#1 -22974#5 --22609#3 --23808#2 -22410#3 -23548#4 --22614#1 -23324#2 -24419#3 --22369#1 --21721#0 -23111#0 --20437#4 -21954#1 -22557#0 -21279 --20247 --21313#0 -22945 --21954#2 --22018 -21453#1 --20925#2 --23260#0 -21712#0 -24175#4 -23998 --20755#0 -22614#0 -20710#1 -20906#0 --21360#4 --23926#0 -20987#2 -22264#3 -22850#6 -21621 -21014#0 --21097#1 --22134#0 --21245#1 -21694#4 -22584#5 -23926#1 --21232#0 -21473#1 -20518#0 -24601#1 --21445 --22761#1 --22654 --21500#0 --22715#1 --21770#1 --21888#2 -21515#3 --20324 -22410#4 -23607#0 --20437#6 --20496#0 -23879#1 -23879#0 --20437#0 --23758 -20550#2 -21110#0 -24337#1 -22103#3 -24409#0 --20437#1 -20755#1 --23095#1 --23117 -21127#1 -24069#1 --24033#0 -23278#1 -21080 -23527#0 -21881#0 --22190 -23926#3 -20342#6 --21709#1 -22761#0 -23034 -22718#1 -24445#1 -23436 -23837#0 -22521 --22906#1 --24518#0 --21638#0 -23819#1 --21517#2 -24534#1 --23977#1 --21152#0 -23935 --23460#1 -23388#1 -20849#1 --24419#1 --21232#3 -20989#1 -24395#1 -21317#0 -22134#0 -20240#0 -21831#1 -22331#0 --24525#1 -20317#0 -22103#2 --22264#3 --20560#0 -20399#1 -20321#1 -24555#0 --22388 -22989#2 -20931#5 -23112#2 --24207#1 -21094#1 -20591#0 -24287#1 -22047#2 -24364#4 -22252 --21517#0 -21838#1 --23254 -23325 -22974#4 --21462#0 --22326#2 -22461#0 --23926#2 --21238 --20641#0 --22304#6 -23112#1 -24240#6 -22402 -21644 -22777#0 -21245#1 -21304#0 -21185 --23808#0 -20449#0 --24293#1 -23548#9 -23979 --20399#1 --23184#3 --24402#0 -23567#2 --24402#3 --21701 -20987#0 -23262#0 -21766#1 --23038#2 -24139#2 --20649 -23104 -21384#0 -21998#2 -21779 -21297#1 -24146#0 --24085#1 -21358#6 -22786 -22645#4 --20735#1 --21502#2 -20898#1 -21543#3 -23184#0 --23324#1 -24066#1 -20518#2 --23038#1 --24059#1 -21152#0 -21640 -20337#0 -23431#3 --24183 --23301#3 -21021 -24518#1 --21912#1 -20673#0 --24309 -20550#0 -22529#0 -21152#2 -21920 --22326#3 -23973#8 --23184#2 -24402#0 -22877#1 -21965#0 -20479#0 -22005 -24033#1 -21213#0 --24555#0 -21232#0 -24300#1 -20920 -24240#2 -22226#0 --23935 -20545#0 -21514#0 --23764#5 -22244#0 -22290#4 -23764#11 -22974#1 --22287#1 -21546#3 -23630#1 --21361#0 --21044#0 -21546#6 -23095#3 -22679 --23068#1 --20837#0 --22777#2 --24020 --23837#2 --21954#1 --23938 -23548#0 -24018#0 --22304#12 -20698 --20240#2 --24108 --23155#4 --23600#0 --24033#2 -22002#0 --21127#0 -23431#2 -20931#3 -20342#9 --24501#0 -20545#4 -23101#1 --22342#0 --21453#0 -24546 -23973#4 -21120#1 -20518#13 -22079 -20518#12 --21623#0 -24601#3 --23262#1 --21014#4 -20528#2 --24059#4 -21189#0 --24419#2"/>
    <!-- id="-401" name="CFC" -->