<?xml version="1.0" encoding="UTF-8"?>
<sumoConfiguration xmlns:xsi="http://www.w3.org/2001/XMLSchema-instance" 
                   xsi:noNamespaceSchemaLocation="http://sumo.dlr.de/xsd/sumoConfiguration.xsd">

    <input>
        <net-file value="H2ST.net.xml"/>
        <route-files value="H2ST.rou.xml"/> 
    </input>
    <time>
        <begin value="0"/>
        <end value="10800"/>
    </time>
</sumoConfiguration>
