<?xml version="1.0" encoding="UTF-8"?>

<!-- generated on 2025-08-07 22:25:59.920847 by randomTrips.py v1_23_1+0000-676720d13f6
<configuration>
    <net-file value="H2ST.net.xml"/>
    <output-trip-file value="test.rou.xml"/>
    <validate value="True"/>
    <end value="3000.0"/>
    <period value="5.0"/>
</configuration>
-->

<routes xmlns:xsi="http://www.w3.org/2001/XMLSchema-instance" xsi:noNamespaceSchemaLocation="http://sumo.dlr.de/xsd/routes_file.xsd">
    <trip id="0" depart="0.00" from="408865521#2" to="-174297967#5"/>
    <trip id="1" depart="5.00" from="-594329155" to="-574786195#1"/>
    <trip id="2" depart="10.00" from="574786173" to="422876825#1"/>
    <trip id="3" depart="15.00" from="595195228#1" to="-367665089"/>
    <trip id="4" depart="20.00" from="-96957262" to="-182932857#0"/>
    <trip id="5" depart="25.00" from="-574783349#4" to="292126215#7"/>
    <trip id="6" depart="30.00" from="-174298001#4" to="-520359021#1"/>
    <trip id="7" depart="35.00" from="42035783#3" to="301589284#6"/>
    <trip id="8" depart="40.00" from="-574786174" to="38770520#5"/>
    <trip id="9" depart="45.00" from="593932543#1" to="-1227256412"/>
    <trip id="10" depart="50.00" from="593874930#1" to="516542988"/>
    <trip id="11" depart="55.00" from="-594748214#2" to="-408865518#3"/>
    <trip id="12" depart="60.00" from="708821526" to="-594748207#1"/>
    <trip id="13" depart="65.00" from="-38747436#2" to="-38748448#1"/>
    <trip id="14" depart="70.00" from="594367706#1" to="392380151#2"/>
    <trip id="15" depart="75.00" from="593932502#0" to="574773678"/>
    <trip id="16" depart="80.00" from="301589275#1" to="736421476#1"/>
    <trip id="17" depart="85.00" from="-597015687#5" to="341222699#0"/>
    <trip id="18" depart="90.00" from="594367616#0" to="40444002#1"/>
    <trip id="19" depart="95.00" from="594367779" to="38748459#4"/>
    <trip id="20" depart="100.00" from="520340482#1" to="-261972081#1"/>
    <trip id="21" depart="105.00" from="-574786231#0" to="-594367607#3"/>
    <trip id="22" depart="110.00" from="-367638143#1" to="-574798194#2"/>
    <trip id="23" depart="115.00" from="-38748601" to="-594329232#4"/>
    <trip id="24" depart="120.00" from="40520584#4" to="-596626946"/>
    <trip id="25" depart="125.00" from="-596671538#1" to="-574773654#1"/>
    <trip id="26" depart="130.00" from="-588433649" to="597056275#0"/>
    <trip id="27" depart="135.00" from="415654609#3" to="40323352#5"/>
    <trip id="28" depart="140.00" from="-421693896#1" to="574773674#0"/>
    <trip id="29" depart="145.00" from="-414520817#1" to="-597015688#1"/>
    <trip id="30" depart="150.00" from="96956707#1" to="414278654"/>
    <trip id="31" depart="155.00" from="367638144#2" to="427251374#3"/>
    <trip id="32" depart="160.00" from="594367678#1" to="579540451#1"/>
    <trip id="33" depart="165.00" from="-574786239#1" to="-208352434#1"/>
    <trip id="34" depart="170.00" from="-594367742#1" to="-593874946"/>
    <trip id="35" depart="175.00" from="-574773658" to="597081846"/>
    <trip id="36" depart="180.00" from="594720589#2" to="-594367745#0"/>
    <trip id="37" depart="185.00" from="596626951" to="174297827#0"/>
    <trip id="38" depart="190.00" from="-588233075" to="-579502896#1"/>
    <trip id="39" depart="195.00" from="367638151#3" to="-586647230#1"/>
    <trip id="40" depart="200.00" from="38770500#6" to="595230171"/>
    <trip id="41" depart="205.00" from="-715829659#0" to="-574783354"/>
    <trip id="42" depart="210.00" from="96957656#2" to="294175694#0"/>
    <trip id="43" depart="215.00" from="-38706636#0" to="-292126151"/>
    <trip id="44" depart="220.00" from="-38770518#2" to="40519989#1"/>
    <trip id="45" depart="225.00" from="586647206#11-AddedOffRampEdge" to="-97555857#1"/>
    <trip id="46" depart="230.00" from="-294175773#3" to="-597015697#1"/>
    <trip id="47" depart="235.00" from="96957263#2" to="30134110#1"/>
    <trip id="48" depart="240.00" from="729103986#7" to="594367773#1"/>
    <trip id="49" depart="245.00" from="-1348029199" to="574773630#2"/>
    <trip id="50" depart="250.00" from="423236491#10" to="301589276#10"/>
    <trip id="51" depart="255.00" from="-588433645#1" to="414520801#4"/>
    <trip id="52" depart="260.00" from="-38770520#6" to="1120685266"/>
    <trip id="53" depart="265.00" from="594720589#1" to="-588233064#1"/>
    <trip id="54" depart="270.00" from="274178427#0" to="-422688380#3"/>
    <trip id="55" depart="275.00" from="596611839#0" to="594720464#1"/>
    <trip id="56" depart="280.00" from="-594367642#1" to="408865521#5"/>
    <trip id="57" depart="285.00" from="40323271" to="-40520584#2"/>
    <trip id="58" depart="290.00" from="579002195#2" to="301589281#1"/>
    <trip id="59" depart="295.00" from="579576467#0" to="30134210#1"/>
    <trip id="60" depart="300.00" from="-1055614810#0" to="-594367783#1"/>
    <trip id="61" depart="305.00" from="-174297887#1" to="597015688#2"/>
    <trip id="62" depart="310.00" from="594748207#2" to="594367624#2"/>
    <trip id="63" depart="315.00" from="-594367684#3" to="-294175728#1"/>
    <trip id="64" depart="320.00" from="594720598" to="60917163#3"/>
    <trip id="65" depart="325.00" from="-367638151#9" to="208352440#9"/>
    <trip id="66" depart="330.00" from="-294175805#0" to="575794031#2"/>
    <trip id="67" depart="335.00" from="579502898#11" to="-40443985#0"/>
    <trip id="68" depart="340.00" from="182932895#2" to="307293823"/>
    <trip id="69" depart="345.00" from="-588233078#0" to="594720486#1"/>
    <trip id="70" depart="350.00" from="-97555857#0" to="-574773662#1"/>
    <trip id="71" depart="355.00" from="301589280#8" to="574783323#0"/>
    <trip id="72" depart="360.00" from="-520390890#6" to="-594367719"/>
    <trip id="73" depart="365.00" from="96957259#1" to="421377726#2"/>
    <trip id="74" depart="370.00" from="1228125092" to="294175764#2"/>
    <trip id="75" depart="375.00" from="-38788737#5" to="-574786197"/>
    <trip id="76" depart="380.00" from="-594748209#0" to="38770519#5"/>
    <trip id="77" depart="385.00" from="-574786244#0" to="-574786175"/>
    <trip id="78" depart="390.00" from="-30134207#1" to="40519996"/>
    <trip id="79" depart="395.00" from="-574786239#0" to="595637182"/>
    <trip id="80" depart="400.00" from="594367769#1" to="-30134207#0"/>
    <trip id="81" depart="405.00" from="-574798222#0" to="422688373#2"/>
    <trip id="82" depart="410.00" from="-574783324#1" to="-40443995#5"/>
    <trip id="83" depart="415.00" from="597056245" to="38748429#1"/>
    <trip id="84" depart="420.00" from="174670366#2" to="582780991#3"/>
    <trip id="85" depart="425.00" from="593932511#0" to="-463281343#3"/>
    <trip id="86" depart="430.00" from="-38748450#0" to="1111170287"/>
    <trip id="87" depart="435.00" from="-97555864" to="174297954#0"/>
    <trip id="88" depart="440.00" from="574773670" to="422688381#8"/>
    <trip id="89" depart="445.00" from="871612922#15" to="-38748453#1"/>
    <trip id="90" depart="450.00" from="-718428934#1" to="-594748214#0"/>
    <trip id="91" depart="455.00" from="594367778#0" to="-579511335#2"/>
    <trip id="92" depart="460.00" from="-463281343#2" to="1316530843#2"/>
    <trip id="93" depart="465.00" from="-96957262" to="-594367514"/>
    <trip id="94" depart="470.00" from="-579511335#5" to="597015669#0"/>
    <trip id="95" depart="475.00" from="1269002529" to="594367775#1"/>
    <trip id="96" depart="480.00" from="307294106" to="-292126215#6"/>
    <trip id="97" depart="485.00" from="97555871" to="594367638#1"/>
    <trip id="98" depart="490.00" from="728149956" to="597015679#2"/>
    <trip id="99" depart="495.00" from="594367714#2" to="-421377748#2"/>
    <trip id="100" depart="500.00" from="208352440#4" to="-574773675"/>
    <trip id="101" depart="505.00" from="-717124189" to="-294175738#0"/>
    <trip id="102" depart="510.00" from="-597015688#2" to="871612922#7"/>
    <trip id="103" depart="515.00" from="-588233078#1" to="582780990#4"/>
    <trip id="104" depart="520.00" from="156408445#1" to="-97555869#1"/>
    <trip id="105" depart="525.00" from="708821526" to="96957261"/>
    <trip id="106" depart="530.00" from="349621485#0" to="566345746#0"/>
    <trip id="107" depart="535.00" from="-408865518#0" to="-594367638#0"/>
    <trip id="108" depart="540.00" from="728148973#0" to="38770455#0"/>
    <trip id="109" depart="545.00" from="301589281#4" to="574798192"/>
    <trip id="110" depart="550.00" from="-294175712" to="38770510#3"/>
    <trip id="111" depart="555.00" from="292126180#0" to="594367737"/>
    <trip id="112" depart="560.00" from="-408865521#9" to="718387905"/>
    <trip id="113" depart="565.00" from="-367638144#1" to="-463281307#0"/>
    <trip id="114" depart="570.00" from="38785135#4" to="422876818"/>
    <trip id="115" depart="575.00" from="-574798205" to="-38788713#8"/>
    <trip id="116" depart="580.00" from="595195210" to="-579498813#4"/>
    <trip id="117" depart="585.00" from="38785132" to="40444002#8"/>
    <trip id="118" depart="590.00" from="-96956722#1" to="38770507#0"/>
    <trip id="119" depart="595.00" from="294175792#3" to="597056262"/>
    <trip id="120" depart="600.00" from="-574773629#1" to="525389560#0"/>
    <trip id="121" depart="605.00" from="-574798225" to="-637321312#3"/>
    <trip id="122" depart="610.00" from="422688378#2" to="-594367659"/>
    <trip id="123" depart="615.00" from="-594367745#3" to="574798213"/>
    <trip id="124" depart="620.00" from="-30134211#2" to="174297786#4"/>
    <trip id="125" depart="625.00" from="97555864" to="96957263#2"/>
    <trip id="126" depart="630.00" from="-301589272#6" to="-574773671#1"/>
    <trip id="127" depart="635.00" from="-588233078#1" to="597041114"/>
    <trip id="128" depart="640.00" from="594748213#2" to="594748209#0"/>
    <trip id="129" depart="645.00" from="-596671535#1" to="-408865521#9"/>
    <trip id="130" depart="650.00" from="594367630" to="520340010#4"/>
    <trip id="131" depart="655.00" from="40443985#5" to="96955831#3"/>
    <trip id="132" depart="660.00" from="421567006#1" to="-1268616048#1"/>
    <trip id="133" depart="665.00" from="594367524" to="-594367652#0"/>
    <trip id="134" depart="670.00" from="421693910#4" to="597066154#1"/>
    <trip id="135" depart="675.00" from="-40443998#4" to="-38785035#3"/>
    <trip id="136" depart="680.00" from="-38770511#3" to="341222707#1"/>
    <trip id="137" depart="685.00" from="-593943920" to="39320958#17"/>
    <trip id="138" depart="690.00" from="550647102#2" to="-558682695#1"/>
    <trip id="139" depart="695.00" from="40520001" to="-588233064#5"/>
    <trip id="140" depart="700.00" from="208352458#2" to="595637181"/>
    <trip id="141" depart="705.00" from="594367689#1" to="-38706637#1"/>
    <trip id="142" depart="710.00" from="-97555864" to="-594329226"/>
    <trip id="143" depart="715.00" from="-1111170287" to="579515433"/>
    <trip id="144" depart="720.00" from="407175407#13" to="-586647216#3"/>
    <trip id="145" depart="725.00" from="574786200" to="341222697#0"/>
    <trip id="146" depart="730.00" from="1059169114" to="-1270628423#1"/>
    <trip id="147" depart="735.00" from="-301589290#2" to="595183867#0"/>
    <trip id="148" depart="740.00" from="595242187" to="301589285#10"/>
    <trip id="149" depart="745.00" from="594367632#1" to="38770500#0"/>
    <trip id="150" depart="750.00" from="-40519994#4" to="-40323366"/>
    <trip id="151" depart="755.00" from="-594367687#2" to="595230192"/>
    <trip id="152" depart="760.00" from="586647225#17" to="594367773#0"/>
    <trip id="153" depart="765.00" from="595230177" to="-574773655#2"/>
    <trip id="154" depart="770.00" from="-579511335#4" to="-38770455#2"/>
    <trip id="155" depart="775.00" from="579798057#3" to="595183869#4"/>
    <trip id="156" depart="780.00" from="-728148973#0" to="40519275#1"/>
    <trip id="157" depart="785.00" from="-407175407#8" to="597015689#2"/>
    <trip id="158" depart="790.00" from="593943920" to="594748214#1"/>
    <trip id="159" depart="795.00" from="-174297959#0" to="574786174"/>
    <trip id="160" depart="800.00" from="-594720466" to="597015691#2"/>
    <trip id="161" depart="805.00" from="588233154#0" to="594367786#1"/>
    <trip id="162" depart="810.00" from="593943920" to="-588433677#1"/>
    <trip id="163" depart="815.00" from="582781361#4" to="-38770512#2"/>
    <trip id="164" depart="820.00" from="594720481#4" to="594367766"/>
    <trip id="165" depart="825.00" from="-574786188#3" to="594367524"/>
    <trip id="166" depart="830.00" from="174297855#5" to="-594367680#0"/>
    <trip id="167" depart="835.00" from="586647225#1" to="-574786231#0"/>
    <trip id="168" depart="840.00" from="-174297937#4" to="-520338845#1"/>
    <trip id="169" depart="845.00" from="-594367801#0" to="594367787"/>
    <trip id="170" depart="850.00" from="727757166#1" to="-594367529#1"/>
    <trip id="171" depart="855.00" from="414520801#1" to="-715829659#0"/>
    <trip id="172" depart="860.00" from="772373648#3" to="301589275#3"/>
    <trip id="173" depart="865.00" from="597056277#1" to="-38785035#2"/>
    <trip id="174" depart="870.00" from="729103986#2" to="-422688380#2"/>
    <trip id="175" depart="875.00" from="718396546#1" to="-588433633"/>
    <trip id="176" depart="880.00" from="-38770514#4" to="1112797259#8"/>
    <trip id="177" depart="885.00" from="574773668#4" to="-594367734#1"/>
    <trip id="178" depart="890.00" from="39320958#4" to="294175710#1"/>
    <trip id="179" depart="895.00" from="-597056272#0" to="38748458#4"/>
    <trip id="180" depart="900.00" from="-579516624#7" to="520347064#0"/>
    <trip id="181" depart="905.00" from="-1058515006#1" to="597015676#1"/>
    <trip id="182" depart="910.00" from="301589280#1" to="566353205#1"/>
    <trip id="183" depart="915.00" from="574786202#1" to="422688377#4"/>
    <trip id="184" depart="920.00" from="-596626946" to="-294175811"/>
    <trip id="185" depart="925.00" from="421693910#9" to="-594720452#1"/>
    <trip id="186" depart="930.00" from="-594367729#1" to="594367706#2"/>
    <trip id="187" depart="935.00" from="566353205#1" to="-594367661#1"/>
    <trip id="188" depart="940.00" from="-594367696" to="-729103986#5"/>
    <trip id="189" depart="945.00" from="-718428934#0" to="-594367632#2"/>
    <trip id="190" depart="950.00" from="-40323382#1" to="-96956867#0"/>
    <trip id="191" depart="955.00" from="597066154#0" to="422876827#2"/>
    <trip id="192" depart="960.00" from="595242176" to="40443997#3"/>
    <trip id="193" depart="965.00" from="-594367660#1" to="301589287#2"/>
    <trip id="194" depart="970.00" from="-1052627498" to="-594367599#3"/>
    <trip id="195" depart="975.00" from="1110894766" to="38770491#3"/>
    <trip id="196" depart="980.00" from="421685167#2" to="174297919#3"/>
    <trip id="197" depart="985.00" from="1269002526#5" to="-574773675"/>
    <trip id="198" depart="990.00" from="174670375#0" to="595242163#1"/>
    <trip id="199" depart="995.00" from="586647225#17" to="-421685200#2"/>
    <trip id="200" depart="1000.00" from="-367638151#3" to="294175749"/>
    <trip id="201" depart="1005.00" from="40519998#1" to="-594720579"/>
    <trip id="202" depart="1010.00" from="594367531#0" to="574798209"/>
    <trip id="203" depart="1015.00" from="422688380#4" to="-574786197"/>
    <trip id="204" depart="1020.00" from="-520390890#1" to="-174297966#1"/>
    <trip id="205" depart="1025.00" from="-575794034#0" to="182932895#2"/>
    <trip id="206" depart="1030.00" from="594367716#5" to="-301589272#1"/>
    <trip id="207" depart="1035.00" from="-96851065#0" to="40519993#2"/>
    <trip id="208" depart="1040.00" from="-520338845#8" to="511783949#4"/>
    <trip id="209" depart="1045.00" from="214853132#1" to="-575794031#3"/>
    <trip id="210" depart="1050.00" from="421685173#1" to="-1112411970#5"/>
    <trip id="211" depart="1055.00" from="574798209" to="579512282#1"/>
    <trip id="212" depart="1060.00" from="-38770510#2" to="1055829190#1"/>
    <trip id="213" depart="1065.00" from="-421693925#1" to="715753077#1"/>
    <trip id="214" depart="1070.00" from="294175765#0" to="-292126215#4"/>
    <trip id="215" depart="1075.00" from="-579511335#1" to="594367709#1"/>
    <trip id="216" depart="1080.00" from="162803811#0" to="588233144#2"/>
    <trip id="217" depart="1085.00" from="422688364#0" to="96956697#3"/>
    <trip id="218" depart="1090.00" from="38785143#2" to="637321311#1"/>
    <trip id="219" depart="1095.00" from="595195221#4" to="40443994#1"/>
    <trip id="220" depart="1100.00" from="566345746#4" to="292126215#3"/>
    <trip id="221" depart="1105.00" from="594367621#0" to="301589287#1"/>
    <trip id="222" depart="1110.00" from="595208532#1" to="574786237#0"/>
    <trip id="223" depart="1115.00" from="182932857#0" to="-582781361#1"/>
    <trip id="224" depart="1120.00" from="-579502896#1" to="408865518#6"/>
    <trip id="225" depart="1125.00" from="579502898#11" to="294175789#1"/>
    <trip id="226" depart="1130.00" from="40519957#2" to="-594329135#0"/>
    <trip id="227" depart="1135.00" from="-341222692#0" to="-594367597#0"/>
    <trip id="228" depart="1140.00" from="-593932552#1" to="-594367765"/>
    <trip id="229" depart="1145.00" from="301589281#11" to="-40519274#1"/>
    <trip id="230" depart="1150.00" from="-574798185" to="463281342#3"/>
    <trip id="231" depart="1155.00" from="520344336#3" to="-294175780#0"/>
    <trip id="232" depart="1160.00" from="-728712309" to="301589283#0"/>
    <trip id="233" depart="1165.00" from="-96956697#2" to="-574773636#2"/>
    <trip id="234" depart="1170.00" from="-96956730#3" to="595637171#1"/>
    <trip id="235" depart="1175.00" from="38770500#3" to="487397298#1"/>
    <trip id="236" depart="1180.00" from="594367760#1" to="579502898#1"/>
    <trip id="237" depart="1185.00" from="-597015691#1" to="-1112411970#7"/>
    <trip id="238" depart="1190.00" from="-595230207" to="574798225"/>
    <trip id="239" depart="1195.00" from="594367745#1" to="662872376#6"/>
    <trip id="240" depart="1200.00" from="-96956722#0" to="574798190#1"/>
    <trip id="241" depart="1205.00" from="301589285#4" to="391887337#6"/>
    <trip id="242" depart="1210.00" from="-574786175" to="-574783354"/>
    <trip id="243" depart="1215.00" from="1112797259#9" to="-174670375#3"/>
    <trip id="244" depart="1220.00" from="-594720570" to="422876841#6"/>
    <trip id="245" depart="1225.00" from="-722246425" to="-421377725#3"/>
    <trip id="246" depart="1230.00" from="174297954#1" to="-40323382#0"/>
    <trip id="247" depart="1235.00" from="40519277#2" to="-174302517#0"/>
    <trip id="248" depart="1240.00" from="-597081864#0" to="367665099#3"/>
    <trip id="249" depart="1245.00" from="-174298008#1" to="414520809"/>
    <trip id="250" depart="1250.00" from="-40444001#1" to="174297874#1"/>
    <trip id="251" depart="1255.00" from="-292126215#2" to="-597015687#5"/>
    <trip id="252" depart="1260.00" from="-574773662#2" to="-594367800#0"/>
    <trip id="253" depart="1265.00" from="575794035#0" to="-597015687#5"/>
    <trip id="254" depart="1270.00" from="574798215" to="594367625#1"/>
    <trip id="255" depart="1275.00" from="-579515430#2" to="-367638148#0"/>
    <trip id="256" depart="1280.00" from="-174297879#1" to="301589281#1"/>
    <trip id="257" depart="1285.00" from="97555897" to="-595230174"/>
    <trip id="258" depart="1290.00" from="421377725#3" to="580414651#7"/>
    <trip id="259" depart="1295.00" from="421377756" to="574798233"/>
    <trip id="260" depart="1300.00" from="637321197#16" to="-520390890#10"/>
    <trip id="261" depart="1305.00" from="-174297906#10" to="-40520582#1"/>
    <trip id="262" depart="1310.00" from="-40323352#1" to="422688374"/>
    <trip id="263" depart="1315.00" from="367665091" to="-574783349#0"/>
    <trip id="264" depart="1320.00" from="516542991#2" to="579502898#9"/>
    <trip id="265" depart="1325.00" from="-421685174#2" to="39627468#4"/>
    <trip id="266" depart="1330.00" from="574798191" to="-38785034#1"/>
    <trip id="267" depart="1335.00" from="594367544#0" to="722360888#3"/>
    <trip id="268" depart="1340.00" from="-38770514#2" to="-174298001#1"/>
    <trip id="269" depart="1345.00" from="-594367716#2" to="422876827#2"/>
    <trip id="270" depart="1350.00" from="708901909" to="-708808750"/>
    <trip id="271" depart="1355.00" from="521479023#2" to="-307293823"/>
    <trip id="272" depart="1360.00" from="439194172#0" to="40519988#3"/>
    <trip id="273" depart="1365.00" from="-38748613#2" to="579516624#5"/>
    <trip id="274" depart="1370.00" from="594367721#0" to="38847256#6"/>
    <trip id="275" depart="1375.00" from="-38788737#5" to="871612922#15"/>
    <trip id="276" depart="1380.00" from="582779826#0" to="-595201833"/>
    <trip id="277" depart="1385.00" from="1059899624#2" to="-596671536"/>
    <trip id="278" depart="1390.00" from="292126215#9" to="-595183868"/>
    <trip id="279" depart="1395.00" from="594367716#4" to="594367589#3"/>
    <trip id="280" depart="1400.00" from="-38770500#3" to="718387905"/>
    <trip id="281" depart="1405.00" from="40520584#3" to="594367611"/>
    <trip id="282" depart="1410.00" from="520346349#0" to="1120685270"/>
    <trip id="283" depart="1415.00" from="574783345#1" to="727757166#1"/>
    <trip id="284" depart="1420.00" from="-593932535#2" to="593932535#4"/>
    <trip id="285" depart="1425.00" from="301589276#9" to="208352436#2"/>
    <trip id="286" depart="1430.00" from="1112797259#8" to="574783328#0"/>
    <trip id="287" depart="1435.00" from="-593932489#1" to="594367729#3"/>
    <trip id="288" depart="1440.00" from="594367621#1" to="-367665087#1"/>
    <trip id="289" depart="1445.00" from="594748214#3" to="-575794031#3"/>
    <trip id="290" depart="1450.00" from="174297907#0" to="40443985#10"/>
    <trip id="291" depart="1455.00" from="-597015688#4" to="-174670375#1"/>
    <trip id="292" depart="1460.00" from="594367726#2" to="-422876851#1"/>
    <trip id="293" depart="1465.00" from="-574773668#1" to="586647225#9"/>
    <trip id="294" depart="1470.00" from="-594748214#2" to="594748212#1"/>
    <trip id="295" depart="1475.00" from="520338845#1" to="-594329224#0"/>
    <trip id="296" depart="1480.00" from="-1270628431#3" to="637321197#15"/>
    <trip id="297" depart="1485.00" from="-367638151#8" to="574773629#1"/>
    <trip id="298" depart="1490.00" from="208352458#3" to="574824760#1"/>
    <trip id="299" depart="1495.00" from="439194172#0" to="414520817#2"/>
    <trip id="300" depart="1500.00" from="210519335#6" to="586647210#0"/>
    <trip id="301" depart="1505.00" from="-38747436#4" to="-574786186"/>
    <trip id="302" depart="1510.00" from="463281311#0" to="-594367684#1"/>
    <trip id="303" depart="1515.00" from="38770493#0" to="174670375#2"/>
    <trip id="304" depart="1520.00" from="30134210#2" to="1057081566"/>
    <trip id="305" depart="1525.00" from="574786247#2" to="-594720459"/>
    <trip id="306" depart="1530.00" from="520340010#0" to="-593932543#2"/>
    <trip id="307" depart="1535.00" from="-579511338#5" to="-38788734#2"/>
    <trip id="308" depart="1540.00" from="-516542989#3" to="-38788713#5"/>
    <trip id="309" depart="1545.00" from="301589274#7" to="579002195#12"/>
    <trip id="310" depart="1550.00" from="-427251377#4" to="-574783332#1"/>
    <trip id="311" depart="1555.00" from="208352436#5" to="574773648#5"/>
    <trip id="312" depart="1560.00" from="744714554" to="294175805#0"/>
    <trip id="313" depart="1565.00" from="-594367579#1" to="-38748459#2"/>
    <trip id="314" depart="1570.00" from="-520338845#5" to="-574786216#1"/>
    <trip id="315" depart="1575.00" from="-422688400" to="-1408712153"/>
    <trip id="316" depart="1580.00" from="301589274#19" to="-594329133"/>
    <trip id="317" depart="1585.00" from="736421476#2" to="341222709#0"/>
    <trip id="318" depart="1590.00" from="511818458#0" to="-40323271"/>
    <trip id="319" depart="1595.00" from="594720450#0" to="213915590#11"/>
    <trip id="320" depart="1600.00" from="594720518" to="38748451#1"/>
    <trip id="321" depart="1605.00" from="174298001#0" to="1268616052#5"/>
    <trip id="322" depart="1610.00" from="-423697432#7" to="-292126221#0"/>
    <trip id="323" depart="1615.00" from="597081825" to="197699365#0"/>
    <trip id="324" depart="1620.00" from="594367589#11" to="-716618196#1"/>
    <trip id="325" depart="1625.00" from="-301589283#3" to="40519993#0"/>
    <trip id="326" depart="1630.00" from="-294175679#1" to="-40519997#1"/>
    <trip id="327" depart="1635.00" from="367665086#3" to="-594367677#0"/>
    <trip id="328" depart="1640.00" from="96956865#2" to="-38788713#12"/>
    <trip id="329" depart="1645.00" from="579498813#3" to="39481977#0"/>
    <trip id="330" depart="1650.00" from="586647205#10" to="-574786203"/>
    <trip id="331" depart="1655.00" from="294175792#1" to="1394487072#2"/>
    <trip id="332" depart="1660.00" from="1269002527#2" to="594367769#2"/>
    <trip id="333" depart="1665.00" from="96956709#1" to="-594367680#1"/>
    <trip id="334" depart="1670.00" from="40519273" to="40323382#2"/>
    <trip id="335" depart="1675.00" from="574786195#6" to="637321197#11"/>
    <trip id="336" depart="1680.00" from="-574773646" to="-574773657"/>
    <trip id="337" depart="1685.00" from="421685201#4" to="-408865521#4"/>
    <trip id="338" depart="1690.00" from="-421693914#1" to="-301589290#2"/>
    <trip id="339" depart="1695.00" from="-1111170285#0" to="1394487072#2"/>
    <trip id="340" depart="1700.00" from="38785035#3" to="-594367620"/>
    <trip id="341" depart="1705.00" from="-574798186" to="520344337#3"/>
    <trip id="342" depart="1710.00" from="520340010#1" to="1408712153"/>
    <trip id="343" depart="1715.00" from="427251378#3" to="597015670#2"/>
    <trip id="344" depart="1720.00" from="582781364#1" to="40519956#1"/>
    <trip id="345" depart="1725.00" from="421685205#1" to="597041128"/>
    <trip id="346" depart="1730.00" from="1052626806" to="301589284#3"/>
    <trip id="347" depart="1735.00" from="415654604#4" to="596611820#0"/>
    <trip id="348" depart="1740.00" from="594367602#0" to="-30134207#4"/>
    <trip id="349" depart="1745.00" from="-421377748#2" to="-594367687#3"/>
    <trip id="350" depart="1750.00" from="574798195#1" to="38747436#2"/>
    <trip id="351" depart="1755.00" from="-594367602#2" to="-38847259#7"/>
    <trip id="352" depart="1760.00" from="427252611#4" to="518137272#0"/>
    <trip id="353" depart="1765.00" from="597081837#0" to="274178430"/>
    <trip id="354" depart="1770.00" from="214853108#0" to="-367638144#3"/>
    <trip id="355" depart="1775.00" from="-208352465#0" to="1112276363#0"/>
    <trip id="356" depart="1780.00" from="-594367769#2" to="-579511338#1"/>
    <trip id="357" depart="1785.00" from="-38706636#4" to="718440429"/>
    <trip id="358" depart="1790.00" from="594367638#0" to="38748453#2"/>
    <trip id="359" depart="1795.00" from="637321198#2" to="97555890#0"/>
    <trip id="360" depart="1800.00" from="422688380#1" to="-593932535#1"/>
    <trip id="361" depart="1805.00" from="-208352465#2" to="574821794#1"/>
    <trip id="362" depart="1810.00" from="174298008#1" to="421377774#0"/>
    <trip id="363" depart="1815.00" from="596653192" to="-422876841#8"/>
    <trip id="364" depart="1820.00" from="38770510#3" to="40520584#3"/>
    <trip id="365" depart="1825.00" from="213915590#2" to="-38706636#0"/>
    <trip id="366" depart="1830.00" from="-595201829" to="-594720499"/>
    <trip id="367" depart="1835.00" from="422688375#0" to="594367762#4"/>
    <trip id="368" depart="1840.00" from="-594720448#0" to="463281342#0"/>
    <trip id="369" depart="1845.00" from="-594367601#1" to="597081862#1"/>
    <trip id="370" depart="1850.00" from="594329138" to="307295398"/>
    <trip id="371" depart="1855.00" from="1414635502#1" to="-594367742#1"/>
    <trip id="372" depart="1860.00" from="-594367773#2" to="729103986#8"/>
    <trip id="373" depart="1865.00" from="-722243114" to="294175738#1"/>
    <trip id="374" depart="1870.00" from="96956697#2" to="421685188"/>
    <trip id="375" depart="1875.00" from="301589282#0" to="-744757727#2"/>
    <trip id="376" depart="1880.00" from="-463281335#2" to="-596611831#0"/>
    <trip id="377" depart="1885.00" from="574821795" to="40519956#3"/>
    <trip id="378" depart="1890.00" from="575794028#0" to="-558682695#0"/>
    <trip id="379" depart="1895.00" from="301589290#2" to="597015686#0"/>
    <trip id="380" depart="1900.00" from="1238801472#0" to="516542989#0"/>
    <trip id="381" depart="1905.00" from="-38847256#0" to="736421476#1"/>
    <trip id="382" depart="1910.00" from="-414520801#1" to="341222690#0"/>
    <trip id="383" depart="1915.00" from="341222697#1" to="-38747436#3"/>
    <trip id="384" depart="1920.00" from="96956723#8" to="596626944#1"/>
    <trip id="385" depart="1925.00" from="174297872#3" to="-38788712#1"/>
    <trip id="386" depart="1930.00" from="594367625#1" to="249545459#2"/>
    <trip id="387" depart="1935.00" from="525389560#1" to="294175690#4"/>
    <trip id="388" depart="1940.00" from="-594329107" to="594367632#2"/>
    <trip id="389" depart="1945.00" from="772373647#4" to="-575794031#2"/>
    <trip id="390" depart="1950.00" from="341222690#1" to="-597041107"/>
    <trip id="391" depart="1955.00" from="596671540#2" to="294175683"/>
    <trip id="392" depart="1960.00" from="594748209#1" to="594367786#1"/>
    <trip id="393" depart="1965.00" from="-594329223#0" to="586647205#0"/>
    <trip id="394" depart="1970.00" from="-96955831#2" to="597056246"/>
    <trip id="395" depart="1975.00" from="292126222#4" to="594367577"/>
    <trip id="396" depart="1980.00" from="-594367578" to="-594367645#1"/>
    <trip id="397" depart="1985.00" from="38770514#3" to="97555867#1"/>
    <trip id="398" depart="1990.00" from="208352465#1" to="-40519995#0"/>
    <trip id="399" depart="1995.00" from="301589280#2" to="-595183954#2"/>
    <trip id="400" depart="2000.00" from="341222696#1" to="301589284#13"/>
    <trip id="401" depart="2005.00" from="156408445#3" to="-594367771"/>
    <trip id="402" depart="2010.00" from="-463281335#9" to="515065515"/>
    <trip id="403" depart="2015.00" from="38748429#0" to="-574798197#0"/>